RUNSPEC
OIL 
GAS
WATER

DIMENS
10 10 10 /


GRID

DXV 
10*10 /

DYV 
10*10 /

DZV 
10*10 /

ACTNUM
   1 998*2 3 /


DEPTHZ
121*2000 /



SCHEDULE
-- **************************************************************************************
-----------------------------------------------------------------------------------------
-- EnKF: RPTSCHED must have RESTART=2 for EnKF to work.
RPTSCHED
   RESTART=2 /

-- EnKF: The keyword 'SKIPREST' in the SCHEDULE section is essential
-- EnKF: for EnKF to work.
SKIPREST
NOECHO
--
-- --------------------------------------------------------------------------------------
-- Schedule file (well comptetions, well constraints, well groups, rates, etc.)
-- Generated by SCHEDULE software
-- Input data required and input data formats are given in  directory
--
INCLUDE
  'target.SCH' /
-------------------------------------
END
